15938965
  -OEChem-07302619173D

 35 37  0     1  0  0  0  0  0999 V2000
    4.5071    1.6379   -0.0316 P   0  0  0  0  0  0  0  0  0  0  0  0
    1.0275   -0.7466    1.0272 O   0  0  0  0  0  0  0  0  0  0  0  0
   -0.7549   -2.9100   -1.2230 O   0  0  0  0  0  0  0  0  0  0  0  0
    1.2580   -3.7241    0.4112 O   0  0  0  0  0  0  0  0  0  0  0  0
    3.5184    0.4560    0.5670 O   0  0  0  0  0  0  0  0  0  0  0  0
    4.8423    2.4814    1.1948 O   0  5  0  0  0  0  0  0  0  0  0  0
    3.6567    2.3639   -1.0698 O   0  5  0  0  0  0  0  0  0  0  0  0
    5.7013    0.8855   -0.6114 O   0  0  0  0  0  0  0  0  0  0  0  0
   -1.0798   -0.0692    0.1726 N   0  0  0  0  0  0  0  0  0  0  0  0
   -1.7140    2.0148   -0.3103 N   0  0  0  0  0  0  0  0  0  0  0  0
   -3.2559   -1.1011    0.4915 N   0  0  0  0  0  0  0  0  0  0  0  0
   -5.0596    0.5090    0.1597 N   0  0  0  0  0  0  0  0  0  0  0  0
   -4.6505    2.7975   -0.4086 N   0  0  0  0  0  0  0  0  0  0  0  0
    0.2145   -1.9561   -0.8396 C   0  0  2  0  0  0  0  0  0  0  0  0
    1.5244   -2.5829   -0.4041 C   0  0  1  0  0  0  0  0  0  0  0  0
   -0.1948   -1.2055    0.4185 C   0  0  1  0  0  0  0  0  0  0  0  0
    2.1350   -1.4887    0.4659 C   0  0  1  0  0  0  0  0  0  0  0  0
    3.0096   -0.5232   -0.3217 C   0  0  0  0  0  0  0  0  0  0  0  0
   -2.4461   -0.0678    0.2157 C   0  0  0  0  0  0  0  0  0  0  0  0
   -0.6885    1.2053   -0.1470 C   0  0  0  0  0  0  0  0  0  0  0  0
   -2.8189    1.2321   -0.0867 C   0  0  0  0  0  0  0  0  0  0  0  0
   -4.1827    1.5061   -0.1097 C   0  0  0  0  0  0  0  0  0  0  0  0
   -4.5492   -0.7146    0.4394 C   0  0  0  0  0  0  0  0  0  0  0  0
    0.3805   -1.2688   -1.6771 H   0  0  0  0  0  0  0  0  0  0  0  0
    2.1502   -2.9072   -1.2404 H   0  0  0  0  0  0  0  0  0  0  0  0
   -0.7047   -1.8532    1.1423 H   0  0  0  0  0  0  0  0  0  0  0  0
    2.6996   -1.8962    1.3121 H   0  0  0  0  0  0  0  0  0  0  0  0
    2.4313   -0.0140   -1.0990 H   0  0  0  0  0  0  0  0  0  0  0  0
    3.8435   -1.0565   -0.7886 H   0  0  0  0  0  0  0  0  0  0  0  0
   -0.8567   -3.5451   -0.4939 H   0  0  0  0  0  0  0  0  0  0  0  0
    2.1151   -4.0727    0.7107 H   0  0  0  0  0  0  0  0  0  0  0  0
    0.3502    1.4875   -0.2526 H   0  0  0  0  0  0  0  0  0  0  0  0
   -5.2795   -1.4886    0.6499 H   0  0  0  0  0  0  0  0  0  0  0  0
   -3.9982    3.5433   -0.6095 H   0  0  0  0  0  0  0  0  0  0  0  0
   -5.6463    2.9717   -0.4188 H   0  0  0  0  0  0  0  0  0  0  0  0
  1  5  1  0  0  0  0
  1  6  1  0  0  0  0
  1  7  1  0  0  0  0
  1  8  2  0  0  0  0
  2 16  1  0  0  0  0
  2 17  1  0  0  0  0
  3 14  1  0  0  0  0
  3 30  1  0  0  0  0
  4 15  1  0  0  0  0
  4 31  1  0  0  0  0
  5 18  1  0  0  0  0
  9 16  1  0  0  0  0
  9 19  1  0  0  0  0
  9 20  1  0  0  0  0
 10 20  2  0  0  0  0
 10 21  1  0  0  0  0
 11 19  2  0  0  0  0
 11 23  1  0  0  0  0
 12 22  1  0  0  0  0
 12 23  2  0  0  0  0
 13 22  1  0  0  0  0
 13 34  1  0  0  0  0
 13 35  1  0  0  0  0
 14 15  1  0  0  0  0
 14 16  1  0  0  0  0
 14 24  1  0  0  0  0
 15 17  1  0  0  0  0
 15 25  1  0  0  0  0
 16 26  1  0  0  0  0
 17 18  1  0  0  0  0
 17 27  1  0  0  0  0
 18 28  1  0  0  0  0
 18 29  1  0  0  0  0
 19 21  1  0  0  0  0
 20 32  1  0  0  0  0
 21 22  2  0  0  0  0
 23 33  1  0  0  0  0
M  CHG  2   6  -1   7  -1
M  END
> <PUBCHEM_COMPOUND_CID>
15938965

> <PUBCHEM_CONFORMER_RMSD>
0.8

> <PUBCHEM_CONFORMER_DIVERSEORDER>
5
52
37
12
4
48
35
49
13
40
26
14
33
11
1
47
21
24
10
27
39
7
38
42
30
50
36
17
51
43
41
28
3
16
15
29
44
2
31
25
20
18
9
46
8
23
32
22
19
6
45
34

> <PUBCHEM_MMFF94_PARTIAL_CHARGES>
29
1 1.37
10 -0.57
11 -0.57
12 -0.62
13 -0.9
14 0.28
15 0.28
16 0.54
17 0.28
18 0.28
19 0.11
2 -0.56
20 0.04
21 0.23
22 0.41
23 0.47
3 -0.68
30 0.4
31 0.4
32 0.15
33 0.15
34 0.4
35 0.4
4 -0.68
5 -0.55
6 -1.03
7 -1.03
8 -1.03
9 0.05

> <PUBCHEM_EFFECTIVE_ROTOR_COUNT>
5

> <PUBCHEM_PHARMACOPHORE_FEATURES>
17
1 13 cation
1 13 donor
1 2 acceptor
1 3 acceptor
1 3 donor
1 4 acceptor
1 4 donor
1 6 acceptor
1 7 acceptor
1 8 acceptor
3 11 12 23 cation
3 9 10 20 cation
3 9 11 19 cation
4 1 6 7 8 anion
5 2 14 15 16 17 rings
5 9 10 19 20 21 rings
6 11 12 19 21 22 23 rings

> <PUBCHEM_HEAVY_ATOM_COUNT>
23

> <PUBCHEM_ATOM_DEF_STEREO_COUNT>
4

> <PUBCHEM_ATOM_UDEF_STEREO_COUNT>
0

> <PUBCHEM_BOND_DEF_STEREO_COUNT>
0

> <PUBCHEM_BOND_UDEF_STEREO_COUNT>
0

> <PUBCHEM_ISOTOPIC_ATOM_COUNT>
0

> <PUBCHEM_COMPONENT_COUNT>
1

> <PUBCHEM_CACTVS_TAUTO_COUNT>
3

> <PUBCHEM_CONFORMER_ID>
00F3359500000005

> <PUBCHEM_MMFF94_ENERGY>
58.0135

> <PUBCHEM_FEATURE_SELFOVERLAP>
86.933

> <PUBCHEM_SHAPE_FINGERPRINT>
10090160 65 18261107504227653455
10498660 4 18412266116509563320
10871710 139 18124310759972401463
11578080 2 16444451400325135951
12173636 292 18268142240152535950
12403259 118 18335687326357563072
12788726 201 17103144928298009962
13583140 156 17242427461678785954
14123255 52 18412542137151685894
14341114 328 17313100882399416240
14528608 73 18341609308964845685
1454969 45 18340486794104460799
14787075 74 18271523203842473667
14790565 3 18339929306637471825
15196674 1 18408604734061724769
15375358 24 18265894653917948107
15961568 22 18041282084257071349
1813 80 13326853310216114842
19591789 44 18123190366403328169
19784866 170 18408045112955773867
21524375 3 18412267250855624698
22113638 7 18263362662959530924
23227448 37 18127127696162451228
23559900 14 18050282574999547235
2838139 119 18412819214224674172
350125 39 18336827494763142410
474 4 18186525414475915532
5104073 3 18188778223907531601
67856867 119 18263637385999310010
7064713 232 18335418010771520500
7808743 9 18122060068956734024
9709674 26 18051978018093624431
9981440 41 18333733541355710970

> <PUBCHEM_SHAPE_MULTIPOLES>
411.19
10.6
3.52
0.89
1.93
1.31
0.02
-9.04
-0.35
1.59
0.46
0.46
0.06
0.42

> <PUBCHEM_SHAPE_SELFOVERLAP>
873.154

> <PUBCHEM_SHAPE_VOLUME>
231.9

> <PUBCHEM_COORDINATE_TYPE>
2
5
10

$$$$
