5461108
  -OEChem-08132600153D

 43 45  0     1  0  0  0  0  0999 V2000
   -2.4387    2.2637    1.1377 P   0  0  2  0  0  0  0  0  0  0  0  0
    0.3734    2.6448    0.2997 P   0  0  2  0  0  0  0  0  0  0  0  0
    2.5270    2.1125   -1.6834 P   0  0  0  0  0  0  0  0  0  0  0  0
   -1.6629   -0.4386   -1.0815 O   0  0  0  0  0  0  0  0  0  0  0  0
   -2.4380   -3.4648   -1.8132 O   0  0  0  0  0  0  0  0  0  0  0  0
   -4.5608   -2.4600   -0.4289 O   0  0  0  0  0  0  0  0  0  0  0  0
   -3.2094    0.8521    0.8384 O   0  0  0  0  0  0  0  0  0  0  0  0
   -1.1481    2.0707    0.1544 O   0  0  0  0  0  0  0  0  0  0  0  0
   -1.9586    2.2814    2.5727 O   0  5  0  0  0  0  0  0  0  0  0  0
   -3.2876    3.3912    0.5922 O   0  0  0  0  0  0  0  0  0  0  0  0
    1.0014    2.0055   -1.0663 O   0  0  0  0  0  0  0  0  0  0  0  0
    1.0277    1.9838    1.4922 O   0  5  0  0  0  0  0  0  0  0  0  0
    0.3374    4.1505    0.1607 O   0  0  0  0  0  0  0  0  0  0  0  0
    2.4675    1.3008   -2.9730 O   0  5  0  0  0  0  0  0  0  0  0  0
    2.7302    3.6091   -1.8945 O   0  5  0  0  0  0  0  0  0  0  0  0
    3.4128    1.5071   -0.5995 O   0  0  0  0  0  0  0  0  0  0  0  0
   -0.0220   -1.6375    0.1452 N   0  0  0  0  0  0  0  0  0  0  0  0
    0.8523   -1.3497    2.1775 N   0  0  0  0  0  0  0  0  0  0  0  0
    2.0033   -2.0963   -1.1160 N   0  0  0  0  0  0  0  0  0  0  0  0
    3.9754   -2.0417    0.3206 N   0  0  0  0  0  0  0  0  0  0  0  0
    3.8439   -1.5875    2.6665 N   0  0  0  0  0  0  0  0  0  0  0  0
   -2.1354   -2.7457   -0.6188 C   0  0  2  0  0  0  0  0  0  0  0  0
   -3.2999   -1.8706   -0.1946 C   0  0  1  0  0  0  0  0  0  0  0  0
   -1.0328   -1.7262   -0.9100 C   0  0  1  0  0  0  0  0  0  0  0  0
   -3.0873   -0.6220   -1.0329 C   0  0  1  0  0  0  0  0  0  0  0  0
   -3.7456    0.6164   -0.4517 C   0  0  0  0  0  0  0  0  0  0  0  0
    1.3269   -1.8110    0.0070 C   0  0  0  0  0  0  0  0  0  0  0  0
   -0.2565   -1.3619    1.4674 C   0  0  0  0  0  0  0  0  0  0  0  0
    1.8497   -1.6291    1.2773 C   0  0  0  0  0  0  0  0  0  0  0  0
    3.2286   -1.7544    1.4139 C   0  0  0  0  0  0  0  0  0  0  0  0
    3.3260   -2.1925   -0.8590 C   0  0  0  0  0  0  0  0  0  0  0  0
   -1.8769   -3.4890    0.1422 H   0  0  0  0  0  0  0  0  0  0  0  0
   -3.2165   -1.6570    0.8757 H   0  0  0  0  0  0  0  0  0  0  0  0
   -0.5083   -1.9556   -1.8442 H   0  0  0  0  0  0  0  0  0  0  0  0
   -3.4513   -0.7722   -2.0571 H   0  0  0  0  0  0  0  0  0  0  0  0
   -4.8284    0.4897   -0.3619 H   0  0  0  0  0  0  0  0  0  0  0  0
   -3.5531    1.4738   -1.1051 H   0  0  0  0  0  0  0  0  0  0  0  0
   -1.6455   -3.9747   -2.0536 H   0  0  0  0  0  0  0  0  0  0  0  0
   -5.2416   -1.8173   -0.1675 H   0  0  0  0  0  0  0  0  0  0  0  0
   -1.2433   -1.1693    1.8619 H   0  0  0  0  0  0  0  0  0  0  0  0
    3.9550   -2.4201   -1.7130 H   0  0  0  0  0  0  0  0  0  0  0  0
    4.8476   -1.6833    2.7401 H   0  0  0  0  0  0  0  0  0  0  0  0
    3.2888   -1.3728    3.4838 H   0  0  0  0  0  0  0  0  0  0  0  0
  1  7  1  0  0  0  0
  1  8  1  0  0  0  0
  1  9  1  0  0  0  0
  1 10  2  0  0  0  0
  2  8  1  0  0  0  0
  2 11  1  0  0  0  0
  2 12  1  0  0  0  0
  2 13  2  0  0  0  0
  3 11  1  0  0  0  0
  3 14  1  0  0  0  0
  3 15  1  0  0  0  0
  3 16  2  0  0  0  0
  4 24  1  0  0  0  0
  4 25  1  0  0  0  0
  5 22  1  0  0  0  0
  5 38  1  0  0  0  0
  6 23  1  0  0  0  0
  6 39  1  0  0  0  0
  7 26  1  0  0  0  0
 17 24  1  0  0  0  0
 17 27  1  0  0  0  0
 17 28  1  0  0  0  0
 18 28  2  0  0  0  0
 18 29  1  0  0  0  0
 19 27  2  0  0  0  0
 19 31  1  0  0  0  0
 20 30  1  0  0  0  0
 20 31  2  0  0  0  0
 21 30  1  0  0  0  0
 21 42  1  0  0  0  0
 21 43  1  0  0  0  0
 22 23  1  0  0  0  0
 22 24  1  0  0  0  0
 22 32  1  0  0  0  0
 23 25  1  0  0  0  0
 23 33  1  0  0  0  0
 24 34  1  0  0  0  0
 25 26  1  0  0  0  0
 25 35  1  0  0  0  0
 26 36  1  0  0  0  0
 26 37  1  0  0  0  0
 27 29  1  0  0  0  0
 28 40  1  0  0  0  0
 29 30  2  0  0  0  0
 31 41  1  0  0  0  0
M  CHG  4   9  -1  12  -1  14  -1  15  -1
M  END
> <PUBCHEM_COMPOUND_CID>
5461108

> <PUBCHEM_CONFORMER_RMSD>
1.2

> <PUBCHEM_CONFORMER_DIVERSEORDER>
1
93
139
106
87
170
27
180
164
67
99
191
207
35
186
84
37
206
122
96
49
218
147
78
58
64
94
56
110
192
102
61
115
123
63
88
39
176
73
213
59
120
8
167
7
95
65
233
121
208
71
138
163
80
210
52
11
97
57
174
108
124
220
196
184
82
128
24
159
119
194
130
86
136
101
3
229
209
72
107
217
172
70
100
142
23
230
132
153
118
66
149
46
198
166
75
92
162
205
112
41
79
126
151
175
181
60
140
188
26
152
55
193
89
68
168
32
189
150
43
143
81
195
54
190
199
200
31
173
216
201
155
15
91
85
21
227
133
219
19
44
141
185
231
117
83
222
90
6
25
197
125
50
48
69
156
116
158
148
202
105
113
211
62
34
212
114
76
179
187
160
38
131
104
74
47
22
103
177
4
145
137
18
223
221
234
5
16
146
29
17
203
109
129
45
225
53
183
77
40
33
28
10
154
144
232
127
157
204
182
2
178
51
12
14
134
36
98
224
226
30
161
42
171
20
165
228
111
13
135
215
214
9
169

> <PUBCHEM_MMFF94_PARTIAL_CHARGES>
37
1 1.44
10 -0.95
11 -0.54
12 -0.95
13 -0.95
14 -1.03
15 -1.03
16 -1.03
17 0.05
18 -0.57
19 -0.57
2 1.44
20 -0.62
21 -0.9
22 0.28
23 0.28
24 0.54
25 0.28
26 0.28
27 0.11
28 0.04
29 0.23
3 1.37
30 0.41
31 0.47
38 0.4
39 0.4
4 -0.56
40 0.15
41 0.15
42 0.4
43 0.4
5 -0.68
6 -0.68
7 -0.55
8 -0.54
9 -0.95

> <PUBCHEM_EFFECTIVE_ROTOR_COUNT>
9

> <PUBCHEM_PHARMACOPHORE_FEATURES>
21
1 10 acceptor
1 12 acceptor
1 13 acceptor
1 14 acceptor
1 15 acceptor
1 16 acceptor
1 21 cation
1 21 donor
1 4 acceptor
1 5 acceptor
1 5 donor
1 6 acceptor
1 6 donor
1 9 acceptor
3 17 18 28 cation
3 17 19 27 cation
3 19 20 31 cation
4 3 14 15 16 anion
5 17 18 27 28 29 rings
5 4 22 23 24 25 rings
6 19 20 27 29 30 31 rings

> <PUBCHEM_HEAVY_ATOM_COUNT>
31

> <PUBCHEM_ATOM_DEF_STEREO_COUNT>
4

> <PUBCHEM_ATOM_UDEF_STEREO_COUNT>
0

> <PUBCHEM_BOND_DEF_STEREO_COUNT>
0

> <PUBCHEM_BOND_UDEF_STEREO_COUNT>
0

> <PUBCHEM_ISOTOPIC_ATOM_COUNT>
0

> <PUBCHEM_COMPONENT_COUNT>
1

> <PUBCHEM_CACTVS_TAUTO_COUNT>
3

> <PUBCHEM_CONFORMER_ID>
0053547400000001

> <PUBCHEM_MMFF94_ENERGY>
54.8037

> <PUBCHEM_FEATURE_SELFOVERLAP>
107.261

> <PUBCHEM_SHAPE_FINGERPRINT>
10498660 4 17765982914378077337
10675989 125 17977670041317643861
1100329 8 18410857616898037659
11578080 2 17170079729894733311
12035759 4 18269004235223974933
12156800 1 16556813839246927193
133893 2 17894629283615729012
13965767 371 17329419554473294410
14840074 17 17975711492964334264
15297060 5 17773045150276968618
19930381 70 17405993332519656351
20600515 1 17974817658714254206
20691752 17 17240477022302820351
20764821 26 17473837593589083820
20905425 154 18270400615133675597
23419403 2 17616197751159650068
23557571 272 17988635238673469058
238 59 17760651760341460838
2818148 4 18270697479426893083
35225 105 17192596370409832732
445580 44 17463379778210255424
445580 8 17904780885396339881
469060 322 17751622274807155538
474 4 17677890326144382886
513532 50 17343775161075664775
5282940 2 18262245507410443052
5895379 119 18271253711808642910
6287921 2 17624431782848856144
7064713 232 17911794678691617000
9925002 15 18411692167176292216

> <PUBCHEM_SHAPE_MULTIPOLES>
548.31
6.87
5.09
2.24
0.67
3.17
-0.26
-2.39
0.18
0.42
0.92
-1.57
0.43
-3.52

> <PUBCHEM_SHAPE_SELFOVERLAP>
1124.529

> <PUBCHEM_SHAPE_VOLUME>
317.8

> <PUBCHEM_COORDINATE_TYPE>
2
5
10

$$$$
